<?xml version="1.0" encoding="UTF-8"?>

<!-- generated on 2021-11-11  9:29:33 by Eclipse SUMO netedit Version 1.9.0
<configuration xmlns:xsi="http://www.w3.org/2001/XMLSchema-instance" xsi:noNamespaceSchemaLocation="http://sumo.dlr.de/xsd/netconvertConfiguration.xsd">

    <input>
        <sumo-net-file value="C:\Program%20Files%20(x86)\Eclipse\Sumo\0811\demo.net.xml"/>
    </input>

    <output>
        <output-file value="C:\Program%20Files%20(x86)\Eclipse\Sumo\0811\demo.net.xml"/>
    </output>

    <processing>
        <geometry.min-radius.fix.railways value="false"/>
        <geometry.max-grade.fix value="false"/>
        <offset.disable-normalization value="true"/>
        <lefthand value="false"/>
    </processing>

    <junctions>
        <no-turnarounds value="true"/>
        <junctions.corner-detail value="5"/>
        <junctions.limit-turn-speed value="5.5"/>
        <rectangular-lane-cut value="false"/>
    </junctions>

    <pedestrian>
        <walkingareas value="false"/>
    </pedestrian>

    <netedit>
        <additional-files value="C:\Program%20Files%20(x86)\Eclipse\Sumo\0811\demo.add.xml"/>
        <route-files value="C:\Program%20Files%20(x86)\Eclipse\Sumo\0811\demo.rou.xml"/>
    </netedit>

    <report>
        <aggregate-warnings value="5"/>
    </report>

</configuration>
-->

<routes xmlns:xsi="http://www.w3.org/2001/XMLSchema-instance" xsi:noNamespaceSchemaLocation="http://sumo.dlr.de/xsd/routes_file.xsd">
    <vType id="ElectricCar" length="1.00" minGap="0.50" maxSpeed="40.00" color="white" accel="1.0" decel="1.0" sigma="0.0">
        <param key="airDragCoefficient" value="0.6"/>
        <param key="constantPowerIntake" value="100"/>
        <param key="frontSurfaceArea" value="5"/>
        <param key="has.battery.device" value="true"/>
        <param key="internalMomentOfInertia" value="0.01"/>
        <param key="maximumBatteryCapacity" value="2000"/>
        <param key="maximumPower" value="1000"/>
        <param key="propulsionEfficiency" value="0.9"/>
        <param key="radialDragCoefficient" value="0.5"/>
        <param key="recuperationEfficiency" value="0.9"/>
        <param key="rollDragCoefficient" value="0.01"/>
        <param key="stoppingTreshold" value="0.1"/>
        <param key="vehicleMass" value="10000"/>
    </vType>
    <vType id="car" maxSpeed="10.00" accel="3.5" decel="2.2" sigma="1"/>
    <vType id="emergency_vehicle" length="7.00" maxSpeed="20.00" speedFactor="normc(2.00,0.00)" vClass="emergency" guiShape="emergency" minGapLat="0.20" accel="5.5" decel="2.2" sigma="1.0"/>
    <vType id="vType_0"/>
    <route edges="gneE19 gneE199 -gneE31 -gneE139 gneE19 gneE199 -gneE31" color="yellow" id="route_0"/>
    <route edges="gneE20 gneE211 -gneE32 -gneE199 gneE20 gneE211 -gneE32" color="yellow" id="route_1"/>
    <route edges="gneE29 gneE319 -gneE41 -gneE307" color="yellow" id="route_10"/>
    <route edges="gneE119 gneE255 -gneE131 -gneE243" color="yellow" id="route_100"/>
    <route edges="gneE120 gneE267 -gneE132 -gneE255" color="yellow" id="route_101"/>
    <route edges="gneE121 gneE279 -gneE133 -gneE267" color="yellow" id="route_102"/>
    <route edges="gneE122 gneE291 -gneE134 -gneE279" color="yellow" id="route_103"/>
    <route edges="gneE123 gneE303 -gneE135 -gneE291" color="yellow" id="route_104"/>
    <route edges="gneE124 gneE315 -gneE136 -gneE303" color="yellow" id="route_105"/>
    <route edges="gneE126 gneE195 -gneE138 -gneE327" color="yellow" id="route_106"/>
    <route edges="gneE125 gneE327 -gneE137 -gneE315" color="yellow" id="route_107"/>
    <route edges="gneE138 gneE196 -gneE162 -gneE328" color="yellow" id="route_108"/>
    <route edges="gneE137 gneE328 -gneE161 -gneE316" color="yellow" id="route_109"/>
    <route edges="gneE30 gneE187 -gneE42 -gneE319" color="yellow" id="route_11"/>
    <route edges="gneE136 gneE316 -gneE160 -gneE304" color="yellow" id="route_110"/>
    <route edges="gneE135 gneE304 -gneE159 -gneE292" color="yellow" id="route_111"/>
    <route edges="gneE134 gneE292 -gneE158 -gneE280" color="yellow" id="route_112"/>
    <route edges="gneE133 gneE280 -gneE157 -gneE268" color="yellow" id="route_113"/>
    <route edges="gneE132 gneE268 -gneE156 -gneE256" color="yellow" id="route_114"/>
    <route edges="gneE131 gneE256 -gneE155 -gneE244" color="yellow" id="route_115"/>
    <route edges="gneE130 gneE244 -gneE154 -gneE232" color="yellow" id="route_116"/>
    <route edges="gneE129 gneE232 -gneE153 -gneE220" color="yellow" id="route_117"/>
    <route edges="gneE128 gneE220 -gneE152 -gneE208" color="yellow" id="route_118"/>
    <route edges="gneE127 gneE208 -gneE151 -gneE148" color="yellow" id="route_119"/>
    <route edges="gneE54 gneE189 -gneE66 -gneE321" color="yellow" id="route_12"/>
    <route edges="gneE151 gneE209 -gneE163 -gneE149" color="yellow" id="route_120"/>
    <route edges="gneE152 gneE221 -gneE164 -gneE209" color="yellow" id="route_121"/>
    <route edges="gneE153 gneE233 -gneE165 -gneE221" color="yellow" id="route_122"/>
    <route edges="gneE154 gneE245 -gneE166 -gneE233" color="yellow" id="route_123"/>
    <route edges="gneE155 gneE257 -gneE167 -gneE245" color="yellow" id="route_124"/>
    <route edges="gneE156 gneE269 -gneE168 -gneE257" color="yellow" id="route_125"/>
    <route edges="gneE157 gneE281 -gneE169 -gneE269" color="yellow" id="route_126"/>
    <route edges="gneE158 gneE293 -gneE170 -gneE281" color="yellow" id="route_127"/>
    <route edges="gneE159 gneE305 -gneE171 -gneE293" color="yellow" id="route_128"/>
    <route edges="gneE160 gneE317 -gneE172 -gneE305" color="yellow" id="route_129"/>
    <route edges="gneE41 gneE320 -gneE53 -gneE308" color="yellow" id="route_13"/>
    <route edges="gneE161 gneE329 -gneE173 -gneE317" color="yellow" id="route_130"/>
    <route edges="gneE162 gneE197 -gneE174 -gneE329" color="yellow" id="route_131"/>
    <route edges="gneE174 gneE198 -gneE186 -gneE330" color="yellow" id="route_132"/>
    <route edges="gneE173 gneE330 -gneE185 -gneE318" color="yellow" id="route_133"/>
    <route edges="gneE172 gneE318 -gneE184 -gneE306" color="yellow" id="route_134"/>
    <route edges="gneE171 gneE306 -gneE183 -gneE294" color="yellow" id="route_135"/>
    <route edges="gneE170 gneE294 -gneE182 -gneE282" color="yellow" id="route_136"/>
    <route edges="gneE169 gneE282 -gneE181 -gneE270" color="yellow" id="route_137"/>
    <route edges="gneE168 gneE270 -gneE180 -gneE258" color="yellow" id="route_138"/>
    <route edges="gneE167 gneE258 -gneE179 -gneE246" color="yellow" id="route_139"/>
    <route edges="gneE66 gneE190 -gneE78 -gneE322" color="yellow" id="route_14"/>
    <route edges="gneE166 gneE246 -gneE178 -gneE234" color="yellow" id="route_140"/>
    <route edges="gneE165 gneE234 -gneE177 -gneE222" color="yellow" id="route_141"/>
    <route edges="gneE164 gneE222 -gneE176 -gneE210" color="yellow" id="route_142"/>
    <route edges="gneE163 gneE210 -gneE175 -gneE150" color="yellow" id="route_143"/>
    <route edges="gneE199 -gneE31 -gneE139 gneE19" color="yellow" id="route_144"/>
    <route edges="gneE20 gneE211 -gneE32 -gneE199" color="yellow" id="route_145"/>
    <route edges="gneE21 gneE223 -gneE33 -gneE211" color="yellow" id="route_146"/>
    <route edges="gneE235 -gneE34 -gneE223 gneE22" color="yellow" id="route_147"/>
    <route edges="gneE247 -gneE35 -gneE235 gneE23" color="yellow" id="route_148"/>
    <route edges="gneE259 -gneE36 -gneE247 gneE24" color="yellow" id="route_149"/>
    <route edges="gneE42 gneE188 -gneE54 -gneE320" color="yellow" id="route_15"/>
    <route edges="gneE271 -gneE37 -gneE259 gneE25" color="yellow" id="route_150"/>
    <route edges="gneE283 -gneE38 -gneE271 gneE26" color="yellow" id="route_151"/>
    <route edges="gneE295 -gneE39 -gneE283 gneE27" color="yellow" id="route_152"/>
    <route edges="gneE307 -gneE40 -gneE295 gneE28" color="yellow" id="route_153"/>
    <route edges="gneE319 -gneE41 -gneE307 gneE29" color="yellow" id="route_154"/>
    <route edges="gneE187 -gneE42 -gneE319 gneE30" color="yellow" id="route_155"/>
    <route edges="gneE188 -gneE54 -gneE320 gneE42" color="yellow" id="route_156"/>
    <route edges="gneE320 -gneE53 -gneE308 gneE41" color="yellow" id="route_157"/>
    <route edges="gneE308 -gneE52 -gneE296 gneE40" color="yellow" id="route_158"/>
    <route edges="gneE296 -gneE51 -gneE284 gneE39" color="yellow" id="route_159"/>
    <route edges="gneE40 gneE308 -gneE52 -gneE296" color="yellow" id="route_16"/>
    <route edges="gneE284 -gneE50 -gneE272 gneE38" color="yellow" id="route_160"/>
    <route edges="gneE272 -gneE49 -gneE260 gneE37" color="yellow" id="route_161"/>
    <route edges="gneE260 -gneE48 -gneE248 gneE36" color="yellow" id="route_162"/>
    <route edges="gneE248 -gneE47 -gneE236 gneE35" color="yellow" id="route_163"/>
    <route edges="gneE236 -gneE46 -gneE224 gneE34" color="yellow" id="route_164"/>
    <route edges="gneE224 -gneE45 -gneE212 gneE33" color="yellow" id="route_165"/>
    <route edges="gneE212 -gneE44 -gneE200 gneE32" color="yellow" id="route_166"/>
    <route edges="gneE200 -gneE43 -gneE140 gneE31" color="yellow" id="route_167"/>
    <route edges="gneE201 -gneE55 -gneE141 gneE43" color="yellow" id="route_168"/>
    <route edges="gneE213 -gneE56 -gneE201 gneE44" color="yellow" id="route_169"/>
    <route edges="gneE39 gneE296 -gneE51 -gneE284" color="yellow" id="route_17"/>
    <route edges="gneE225 -gneE57 -gneE213 gneE45" color="yellow" id="route_170"/>
    <route edges="gneE237 -gneE58 -gneE225 gneE46" color="yellow" id="route_171"/>
    <route edges="gneE249 -gneE59 -gneE237 gneE47" color="yellow" id="route_172"/>
    <route edges="gneE261 -gneE60 -gneE249 gneE48" color="yellow" id="route_173"/>
    <route edges="gneE273 -gneE61 -gneE261 gneE49" color="yellow" id="route_174"/>
    <route edges="gneE285 -gneE62 -gneE273 gneE50" color="yellow" id="route_175"/>
    <route edges="gneE297 -gneE63 -gneE285 gneE51" color="yellow" id="route_176"/>
    <route edges="gneE309 -gneE64 -gneE297 gneE52" color="yellow" id="route_177"/>
    <route edges="gneE321 -gneE65 -gneE309 gneE53" color="yellow" id="route_178"/>
    <route edges="gneE189 -gneE66 -gneE321 gneE54" color="yellow" id="route_179"/>
    <route edges="gneE38 gneE284 -gneE50 -gneE272" color="yellow" id="route_18"/>
    <route edges="gneE190 -gneE78 -gneE322 gneE66" color="yellow" id="route_180"/>
    <route edges="gneE322 -gneE77 -gneE310 gneE65" color="yellow" id="route_181"/>
    <route edges="gneE310 -gneE76 -gneE298 gneE64" color="yellow" id="route_182"/>
    <route edges="gneE298 -gneE75 -gneE286 gneE63" color="yellow" id="route_183"/>
    <route edges="gneE286 -gneE74 -gneE274 gneE62" color="yellow" id="route_184"/>
    <route edges="gneE274 -gneE73 -gneE262 gneE61" color="yellow" id="route_185"/>
    <route edges="gneE262 -gneE72 -gneE250 gneE60" color="yellow" id="route_186"/>
    <route edges="gneE250 -gneE71 -gneE238 gneE59" color="yellow" id="route_187"/>
    <route edges="gneE238 -gneE70 -gneE226 gneE58" color="yellow" id="route_188"/>
    <route edges="gneE226 -gneE69 -gneE214 gneE57" color="yellow" id="route_189"/>
    <route edges="gneE37 gneE272 -gneE49 -gneE260" color="yellow" id="route_19"/>
    <route edges="gneE214 -gneE68 -gneE202 gneE56" color="yellow" id="route_190"/>
    <route edges="gneE202 -gneE67 -gneE142 gneE55" color="yellow" id="route_191"/>
    <route edges="gneE203 -gneE79 -gneE143 gneE67" color="yellow" id="route_192"/>
    <route edges="gneE215 -gneE80 -gneE203 gneE68" color="yellow" id="route_193"/>
    <route edges="gneE227 -gneE81 -gneE215 gneE69" color="yellow" id="route_194"/>
    <route edges="gneE239 -gneE82 -gneE227 gneE70" color="yellow" id="route_195"/>
    <route edges="gneE251 -gneE83 -gneE239 gneE71" color="yellow" id="route_196"/>
    <route edges="gneE263 -gneE84 -gneE251 gneE72" color="yellow" id="route_197"/>
    <route edges="gneE275 -gneE85 -gneE263 gneE73" color="yellow" id="route_198"/>
    <route edges="gneE287 -gneE86 -gneE275 gneE74" color="yellow" id="route_199"/>
    <route edges="gneE21 gneE223 -gneE33 -gneE211 gneE21 gneE223 -gneE33" color="yellow" id="route_2"/>
    <route edges="gneE36 gneE260 -gneE48 -gneE248" color="yellow" id="route_20"/>
    <route edges="gneE299 -gneE87 -gneE287 gneE75" color="yellow" id="route_200"/>
    <route edges="gneE311 -gneE88 -gneE299 gneE76" color="yellow" id="route_201"/>
    <route edges="gneE323 -gneE89 -gneE311 gneE77" color="yellow" id="route_202"/>
    <route edges="gneE191 -gneE90 -gneE323 gneE78" color="yellow" id="route_203"/>
    <route edges="gneE192 -gneE102 -gneE324 gneE90" color="yellow" id="route_204"/>
    <route edges="gneE324 -gneE101 -gneE312 gneE89" color="yellow" id="route_205"/>
    <route edges="gneE312 -gneE100 -gneE300 gneE88" color="yellow" id="route_206"/>
    <route edges="gneE300 -gneE99 -gneE288 gneE87" color="yellow" id="route_207"/>
    <route edges="gneE288 -gneE98 -gneE276 gneE86" color="yellow" id="route_208"/>
    <route edges="gneE276 -gneE97 -gneE264 gneE85" color="yellow" id="route_209"/>
    <route edges="gneE35 gneE248 -gneE47 -gneE236" color="yellow" id="route_21"/>
    <route edges="gneE264 -gneE96 -gneE252 gneE84" color="yellow" id="route_210"/>
    <route edges="gneE252 -gneE95 -gneE240 gneE83" color="yellow" id="route_211"/>
    <route edges="gneE240 -gneE94 -gneE228 gneE82" color="yellow" id="route_212"/>
    <route edges="gneE228 -gneE93 -gneE216 gneE81" color="yellow" id="route_213"/>
    <route edges="gneE216 -gneE92 -gneE204 gneE80" color="yellow" id="route_214"/>
    <route edges="gneE204 -gneE91 -gneE144 gneE79" color="yellow" id="route_215"/>
    <route edges="gneE205 -gneE103 -gneE145 gneE91" color="yellow" id="route_216"/>
    <route edges="gneE217 -gneE104 -gneE205 gneE92" color="yellow" id="route_217"/>
    <route edges="gneE229 -gneE105 -gneE217 gneE93" color="yellow" id="route_218"/>
    <route edges="gneE241 -gneE106 -gneE229 gneE94" color="yellow" id="route_219"/>
    <route edges="gneE34 gneE236 -gneE46 -gneE224" color="yellow" id="route_22"/>
    <route edges="gneE253 -gneE107 -gneE241 gneE95" color="yellow" id="route_220"/>
    <route edges="gneE265 -gneE108 -gneE253 gneE96" color="yellow" id="route_221"/>
    <route edges="gneE277 -gneE109 -gneE265 gneE97" color="yellow" id="route_222"/>
    <route edges="gneE289 -gneE110 -gneE277 gneE98" color="yellow" id="route_223"/>
    <route edges="gneE301 -gneE111 -gneE289 gneE99" color="yellow" id="route_224"/>
    <route edges="gneE313 -gneE112 -gneE301 gneE100" color="yellow" id="route_225"/>
    <route edges="gneE325 -gneE113 -gneE313 gneE101" color="yellow" id="route_226"/>
    <route edges="gneE193 -gneE114 -gneE325 gneE102" color="yellow" id="route_227"/>
    <route edges="gneE194 -gneE126 -gneE326 gneE114" color="yellow" id="route_228"/>
    <route edges="gneE326 -gneE125 -gneE314 gneE113" color="yellow" id="route_229"/>
    <route edges="gneE33 gneE224 -gneE45 -gneE212" color="yellow" id="route_23"/>
    <route edges="gneE314 -gneE124 -gneE302 gneE112" color="yellow" id="route_230"/>
    <route edges="gneE302 -gneE123 -gneE290 gneE111" color="yellow" id="route_231"/>
    <route edges="gneE290 -gneE122 -gneE278 gneE110" color="yellow" id="route_232"/>
    <route edges="gneE278 -gneE121 -gneE266 gneE109" color="yellow" id="route_233"/>
    <route edges="gneE266 -gneE120 -gneE254 gneE108" color="yellow" id="route_234"/>
    <route edges="gneE254 -gneE119 -gneE242 gneE107" color="yellow" id="route_235"/>
    <route edges="gneE242 -gneE118 -gneE230 gneE106" color="yellow" id="route_236"/>
    <route edges="gneE230 -gneE117 -gneE218 gneE105" color="yellow" id="route_237"/>
    <route edges="gneE218 -gneE116 -gneE206 gneE104" color="yellow" id="route_238"/>
    <route edges="gneE206 -gneE115 -gneE146 gneE103" color="yellow" id="route_239"/>
    <route edges="gneE32 gneE212 -gneE44 -gneE200" color="yellow" id="route_24"/>
    <route edges="gneE207 -gneE127 -gneE147 gneE115" color="yellow" id="route_240"/>
    <route edges="gneE219 -gneE128 -gneE207 gneE116" color="yellow" id="route_241"/>
    <route edges="gneE231 -gneE129 -gneE219 gneE117" color="yellow" id="route_242"/>
    <route edges="gneE243 -gneE130 -gneE231 gneE118" color="yellow" id="route_243"/>
    <route edges="gneE255 -gneE131 -gneE243 gneE119" color="yellow" id="route_244"/>
    <route edges="gneE267 -gneE132 -gneE255 gneE120" color="yellow" id="route_245"/>
    <route edges="gneE279 -gneE133 -gneE267 gneE121" color="yellow" id="route_246"/>
    <route edges="gneE291 -gneE134 -gneE279 gneE122" color="yellow" id="route_247"/>
    <route edges="gneE303 -gneE135 -gneE291 gneE123" color="yellow" id="route_248"/>
    <route edges="gneE315 -gneE136 -gneE303 gneE124" color="yellow" id="route_249"/>
    <route edges="gneE31 gneE200 -gneE43 -gneE140" color="yellow" id="route_25"/>
    <route edges="gneE327 -gneE137 -gneE315 gneE125" color="yellow" id="route_250"/>
    <route edges="gneE195 -gneE138 -gneE327 gneE126" color="yellow" id="route_251"/>
    <route edges="gneE196 -gneE162 -gneE328 gneE138" color="yellow" id="route_252"/>
    <route edges="gneE328 -gneE161 -gneE316 gneE137" color="yellow" id="route_253"/>
    <route edges="gneE316 -gneE160 -gneE304 gneE136" color="yellow" id="route_254"/>
    <route edges="gneE304 -gneE159 -gneE292 gneE135" color="yellow" id="route_255"/>
    <route edges="gneE292 -gneE158 -gneE280 gneE134" color="yellow" id="route_256"/>
    <route edges="gneE280 -gneE157 -gneE268 gneE133" color="yellow" id="route_257"/>
    <route edges="gneE268 -gneE156 -gneE256 gneE132" color="yellow" id="route_258"/>
    <route edges="gneE256 -gneE155 -gneE244 gneE131" color="yellow" id="route_259"/>
    <route edges="gneE43 gneE201 -gneE55 -gneE141" color="yellow" id="route_26"/>
    <route edges="gneE244 -gneE154 -gneE232 gneE130" color="yellow" id="route_260"/>
    <route edges="gneE232 -gneE153 -gneE220 gneE129" color="yellow" id="route_261"/>
    <route edges="gneE220 -gneE152 -gneE208 gneE128" color="yellow" id="route_262"/>
    <route edges="gneE208 -gneE151 -gneE148 gneE127" color="yellow" id="route_263"/>
    <route edges="gneE209 -gneE163 -gneE149 gneE151" color="yellow" id="route_264"/>
    <route edges="gneE221 -gneE164 -gneE209 gneE152" color="yellow" id="route_265"/>
    <route edges="gneE233 -gneE165 -gneE221 gneE153" color="yellow" id="route_266"/>
    <route edges="gneE245 -gneE166 -gneE233 gneE154" color="yellow" id="route_267"/>
    <route edges="gneE257 -gneE167 -gneE245 gneE155" color="yellow" id="route_268"/>
    <route edges="gneE269 -gneE168 -gneE257 gneE156" color="yellow" id="route_269"/>
    <route edges="gneE44 gneE213 -gneE56 -gneE201" color="yellow" id="route_27"/>
    <route edges="gneE281 -gneE169 -gneE269 gneE157" color="yellow" id="route_270"/>
    <route edges="gneE293 -gneE170 -gneE281 gneE158" color="yellow" id="route_271"/>
    <route edges="gneE305 -gneE171 -gneE293 gneE159" color="yellow" id="route_272"/>
    <route edges="gneE317 -gneE172 -gneE305 gneE160" color="yellow" id="route_273"/>
    <route edges="gneE329 -gneE173 -gneE317 gneE161" color="yellow" id="route_274"/>
    <route edges="gneE197 -gneE174 -gneE329 gneE162" color="yellow" id="route_275"/>
    <route edges="gneE198 -gneE186 -gneE330 gneE174" color="yellow" id="route_276"/>
    <route edges="gneE330 -gneE185 -gneE318 gneE173" color="yellow" id="route_277"/>
    <route edges="gneE318 -gneE184 -gneE306 gneE172" color="yellow" id="route_278"/>
    <route edges="gneE306 -gneE183 -gneE294 gneE171" color="yellow" id="route_279"/>
    <route edges="gneE45 gneE225 -gneE57 -gneE213" color="yellow" id="route_28"/>
    <route edges="gneE294 -gneE182 -gneE282 gneE170" color="yellow" id="route_280"/>
    <route edges="gneE282 -gneE181 -gneE270 gneE169" color="yellow" id="route_281"/>
    <route edges="gneE270 -gneE180 -gneE258 gneE168" color="yellow" id="route_282"/>
    <route edges="gneE258 -gneE179 -gneE246 gneE167" color="yellow" id="route_283"/>
    <route edges="gneE246 -gneE178 -gneE234 gneE166" color="yellow" id="route_284"/>
    <route edges="gneE234 -gneE177 -gneE222 gneE165" color="yellow" id="route_285"/>
    <route edges="gneE222 -gneE176 -gneE210 gneE164" color="yellow" id="route_286"/>
    <route edges="gneE210 -gneE175 -gneE150 gneE163" color="yellow" id="route_287"/>
    <route edges="gneE46 gneE237 -gneE58 -gneE225" color="yellow" id="route_29"/>
    <route edges="gneE22 gneE235 -gneE34 -gneE223 gneE22 gneE235 -gneE34" color="yellow" id="route_3"/>
    <route edges="gneE47 gneE249 -gneE59 -gneE237" color="yellow" id="route_30"/>
    <route edges="gneE48 gneE261 -gneE60 -gneE249" color="yellow" id="route_31"/>
    <route edges="gneE49 gneE273 -gneE61 -gneE261" color="yellow" id="route_32"/>
    <route edges="gneE50 gneE285 -gneE62 -gneE273" color="yellow" id="route_33"/>
    <route edges="gneE51 gneE297 -gneE63 -gneE285" color="yellow" id="route_34"/>
    <route edges="gneE52 gneE309 -gneE64 -gneE297" color="yellow" id="route_35"/>
    <route edges="gneE53 gneE321 -gneE65 -gneE309" color="yellow" id="route_36"/>
    <route edges="gneE65 gneE322 -gneE77 -gneE310" color="yellow" id="route_37"/>
    <route edges="gneE64 gneE310 -gneE76 -gneE298" color="yellow" id="route_38"/>
    <route edges="gneE63 gneE298 -gneE75 -gneE286" color="yellow" id="route_39"/>
    <route edges="gneE23 gneE247 -gneE35 -gneE235 gneE23 gneE247 -gneE35" color="yellow" id="route_4"/>
    <route edges="gneE62 gneE286 -gneE74 -gneE274" color="yellow" id="route_40"/>
    <route edges="gneE61 gneE274 -gneE73 -gneE262" color="yellow" id="route_41"/>
    <route edges="gneE60 gneE262 -gneE72 -gneE250" color="yellow" id="route_42"/>
    <route edges="gneE59 gneE250 -gneE71 -gneE238" color="yellow" id="route_43"/>
    <route edges="gneE58 gneE238 -gneE70 -gneE226" color="yellow" id="route_44"/>
    <route edges="gneE57 gneE226 -gneE69 -gneE214" color="yellow" id="route_45"/>
    <route edges="gneE56 gneE214 -gneE68 -gneE202" color="yellow" id="route_46"/>
    <route edges="gneE55 gneE202 -gneE67 -gneE142" color="yellow" id="route_47"/>
    <route edges="gneE67 gneE203 -gneE79 -gneE143" color="yellow" id="route_48"/>
    <route edges="gneE68 gneE215 -gneE80 -gneE203" color="yellow" id="route_49"/>
    <route edges="gneE24 gneE259 -gneE36 -gneE247 gneE24 gneE259 -gneE36" color="yellow" id="route_5"/>
    <route edges="gneE69 gneE227 -gneE81 -gneE215" color="yellow" id="route_50"/>
    <route edges="gneE70 gneE239 -gneE82 -gneE227" color="yellow" id="route_51"/>
    <route edges="gneE71 gneE251 -gneE83 -gneE239" color="yellow" id="route_52"/>
    <route edges="gneE72 gneE263 -gneE84 -gneE251" color="yellow" id="route_53"/>
    <route edges="gneE73 gneE275 -gneE85 -gneE263" color="yellow" id="route_54"/>
    <route edges="gneE74 gneE287 -gneE86 -gneE275" color="yellow" id="route_55"/>
    <route edges="gneE75 gneE299 -gneE87 -gneE287" color="yellow" id="route_56"/>
    <route edges="gneE76 gneE311 -gneE88 -gneE299" color="yellow" id="route_57"/>
    <route edges="gneE77 gneE323 -gneE89 -gneE311" color="yellow" id="route_58"/>
    <route edges="gneE78 gneE191 -gneE90 -gneE323" color="yellow" id="route_59"/>
    <route edges="gneE25 gneE271 -gneE37 -gneE259 gneE25 gneE271 -gneE37" color="yellow" id="route_6"/>
    <route edges="gneE90 gneE192 -gneE102 -gneE324" color="yellow" id="route_60"/>
    <route edges="gneE89 gneE324 -gneE101 -gneE312" color="yellow" id="route_61"/>
    <route edges="gneE88 gneE312 -gneE100 -gneE300" color="yellow" id="route_62"/>
    <route edges="gneE87 gneE300 -gneE99 -gneE288" color="yellow" id="route_63"/>
    <route edges="gneE86 gneE288 -gneE98 -gneE276" color="yellow" id="route_64"/>
    <route edges="gneE85 gneE276 -gneE97 -gneE264" color="yellow" id="route_65"/>
    <route edges="gneE84 gneE264 -gneE96 -gneE252" color="yellow" id="route_66"/>
    <route edges="gneE83 gneE252 -gneE95 -gneE240" color="yellow" id="route_67"/>
    <route edges="gneE82 gneE240 -gneE94 -gneE228" color="yellow" id="route_68"/>
    <route edges="gneE81 gneE228 -gneE93 -gneE216" color="yellow" id="route_69"/>
    <route edges="gneE26 gneE283 -gneE38 -gneE271" color="yellow" id="route_7"/>
    <route edges="gneE80 gneE216 -gneE92 -gneE204" color="yellow" id="route_70"/>
    <route edges="gneE79 gneE204 -gneE91 -gneE144" color="yellow" id="route_71"/>
    <route edges="gneE91 gneE205 -gneE103 -gneE145" color="yellow" id="route_72"/>
    <route edges="gneE92 gneE217 -gneE104 -gneE205" color="yellow" id="route_73"/>
    <route edges="gneE93 gneE229 -gneE105 -gneE217" color="yellow" id="route_74"/>
    <route edges="gneE94 gneE241 -gneE106 -gneE229" color="yellow" id="route_75"/>
    <route edges="gneE95 gneE253 -gneE107 -gneE241" color="yellow" id="route_76"/>
    <route edges="gneE96 gneE265 -gneE108 -gneE253" color="yellow" id="route_77"/>
    <route edges="gneE97 gneE277 -gneE109 -gneE265" color="yellow" id="route_78"/>
    <route edges="gneE98 gneE289 -gneE110 -gneE277" color="yellow" id="route_79"/>
    <route edges="gneE27 gneE295 -gneE39 -gneE283" color="yellow" id="route_8"/>
    <route edges="gneE99 gneE301 -gneE111 -gneE289" color="yellow" id="route_80"/>
    <route edges="gneE100 gneE313 -gneE112 -gneE301" color="yellow" id="route_81"/>
    <route edges="gneE101 gneE325 -gneE113 -gneE313" color="yellow" id="route_82"/>
    <route edges="gneE102 gneE193 -gneE114 -gneE325" color="yellow" id="route_83"/>
    <route edges="gneE114 gneE194 -gneE126 -gneE326" color="yellow" id="route_84"/>
    <route edges="gneE113 gneE326 -gneE125 -gneE314" color="yellow" id="route_85"/>
    <route edges="gneE112 gneE314 -gneE124 -gneE302" color="yellow" id="route_86"/>
    <route edges="gneE111 gneE302 -gneE123 -gneE290" color="yellow" id="route_87"/>
    <route edges="gneE110 gneE290 -gneE122 -gneE278" color="yellow" id="route_88"/>
    <route edges="gneE109 gneE278 -gneE121 -gneE266" color="yellow" id="route_89"/>
    <route edges="gneE28 gneE307 -gneE40 -gneE295" color="yellow" id="route_9"/>
    <route edges="gneE108 gneE266 -gneE120 -gneE254" color="yellow" id="route_90"/>
    <route edges="gneE107 gneE254 -gneE119 -gneE242" color="yellow" id="route_91"/>
    <route edges="gneE106 gneE242 -gneE118 -gneE230" color="yellow" id="route_92"/>
    <route edges="gneE105 gneE230 -gneE117 -gneE218" color="yellow" id="route_93"/>
    <route edges="gneE104 gneE218 -gneE116 -gneE206" color="yellow" id="route_94"/>
    <route edges="gneE103 gneE206 -gneE115 -gneE146" color="yellow" id="route_95"/>
    <route edges="gneE115 gneE207 -gneE127 -gneE147" color="yellow" id="route_96"/>
    <route edges="gneE116 gneE219 -gneE128 -gneE207" color="yellow" id="route_97"/>
    <route edges="gneE117 gneE231 -gneE129 -gneE219" color="yellow" id="route_98"/>
    <route edges="gneE118 gneE243 -gneE130 -gneE231" color="yellow" id="route_99"/>
</routes>