<?xml version="1.0" encoding="UTF-8"?>

<!-- generated on 2021-11-13 12:30:16 by Eclipse SUMO netedit Version 1.9.0
<configuration xmlns:xsi="http://www.w3.org/2001/XMLSchema-instance" xsi:noNamespaceSchemaLocation="http://sumo.dlr.de/xsd/netconvertConfiguration.xsd">

    <output>
        <output-file value="C:\Program%20Files%20(x86)\Eclipse\Sumo\0811\testnet.net.xml"/>
    </output>

    <processing>
        <offset.disable-normalization value="true"/>
    </processing>

    <junctions>
        <no-turnarounds value="true"/>
    </junctions>

    <report>
        <aggregate-warnings value="5"/>
    </report>

</configuration>
-->

<net version="1.9" junctionCornerDetail="5" limitTurnSpeed="5.50" xmlns:xsi="http://www.w3.org/2001/XMLSchema-instance" xsi:noNamespaceSchemaLocation="http://sumo.dlr.de/xsd/net_file.xsd">

    <location netOffset="0.00,0.00" convBoundary="0.00,-200.00,300.00,100.00" origBoundary="10000000000.00,10000000000.00,-10000000000.00,-10000000000.00" projParameter="!"/>

    <edge id=":gneJ0_0" function="internal">
        <lane id=":gneJ0_0_0" index="0" speed="11.12" length="28.38" shape="9.60,108.00 1.90,106.90 -3.60,103.60 -6.90,98.10 -8.00,90.40"/>
        <lane id=":gneJ0_0_1" index="1" speed="10.10" length="23.22" shape="9.60,104.80 3.30,103.90 -1.20,101.20 -3.90,96.70 -4.80,90.40"/>
        <lane id=":gneJ0_0_2" index="2" speed="8.96" length="18.06" shape="9.60,101.60 4.70,100.90 1.20,98.80 -0.90,95.30 -1.60,90.40"/>
    </edge>
    <edge id=":gneJ0_3" function="internal">
        <lane id=":gneJ0_3_0" index="0" speed="3.90" length="2.58" shape="8.00,90.40 8.10,91.10 8.40,91.60 8.90,91.90 9.60,92.00"/>
        <lane id=":gneJ0_3_1" index="1" speed="6.08" length="7.74" shape="4.80,90.40 5.10,92.50 6.00,94.00 7.50,94.90 9.60,95.20"/>
        <lane id=":gneJ0_3_2" index="2" speed="7.66" length="12.90" shape="1.60,90.40 2.10,93.90 3.60,96.40 6.10,97.90 9.60,98.40"/>
    </edge>
    <edge id=":gneJ1_0" function="internal">
        <lane id=":gneJ1_0_0" index="0" speed="13.89" length="40.00" shape="120.00,108.00 80.00,108.00"/>
        <lane id=":gneJ1_0_1" index="1" speed="13.89" length="40.00" shape="120.00,104.80 80.00,104.80"/>
        <lane id=":gneJ1_0_2" index="2" speed="13.89" length="40.00" shape="120.00,101.60 80.00,101.60"/>
    </edge>
    <edge id=":gneJ1_3" function="internal">
        <lane id=":gneJ1_3_0" index="0" speed="12.38" length="14.39" shape="120.00,101.60 107.75,100.65 105.75,100.00"/>
        <lane id=":gneJ1_3_1" index="1" speed="11.89" length="12.77" shape="120.00,101.60 109.15,100.65 107.38,100.00"/>
        <lane id=":gneJ1_3_2" index="2" speed="11.39" length="11.17" shape="120.00,101.60 110.55,100.65 109.01,100.00"/>
    </edge>
    <edge id=":gneJ1_16" function="internal">
        <lane id=":gneJ1_16_0" index="0" speed="12.38" length="21.06" shape="105.75,100.00 99.00,97.80 93.75,93.05 92.00,86.40"/>
    </edge>
    <edge id=":gneJ1_17" function="internal">
        <lane id=":gneJ1_17_0" index="0" speed="11.89" length="19.85" shape="107.38,100.00 101.40,97.80 96.75,93.05 95.20,86.40"/>
    </edge>
    <edge id=":gneJ1_18" function="internal">
        <lane id=":gneJ1_18_0" index="0" speed="11.39" length="18.68" shape="109.01,100.00 103.80,97.80 99.75,93.05 98.40,86.40"/>
    </edge>
    <edge id=":gneJ1_6" function="internal">
        <lane id=":gneJ1_6_0" index="0" speed="6.51" length="9.03" shape="114.40,86.40 114.75,88.85 115.80,90.60 117.55,91.65 120.00,92.00"/>
        <lane id=":gneJ1_6_1" index="1" speed="8.00" length="14.19" shape="111.20,86.40 111.75,90.25 113.40,93.00 116.15,94.65 120.00,95.20"/>
        <lane id=":gneJ1_6_2" index="2" speed="9.26" length="19.35" shape="108.00,86.40 108.75,91.65 111.00,95.40 114.75,97.65 120.00,98.40"/>
    </edge>
    <edge id=":gneJ1_9" function="internal">
        <lane id=":gneJ1_9_0" index="0" speed="12.30" length="34.99" shape="104.80,86.40 103.25,94.45 98.60,100.20 90.85,103.65 80.00,104.80"/>
        <lane id=":gneJ1_9_1" index="1" speed="11.39" length="29.85" shape="101.60,86.40 100.25,93.05 96.20,97.80 89.45,100.65 80.00,101.60"/>
    </edge>
    <edge id=":gneJ1_11" function="internal">
        <lane id=":gneJ1_11_0" index="0" speed="6.51" length="9.03" shape="80.00,92.00 82.45,91.65 84.20,90.60 85.25,88.85 85.60,86.40"/>
        <lane id=":gneJ1_11_1" index="1" speed="7.33" length="11.73" shape="80.00,92.00 83.85,91.65 86.60,90.60 88.25,88.85 88.80,86.40"/>
    </edge>
    <edge id=":gneJ1_13" function="internal">
        <lane id=":gneJ1_13_0" index="0" speed="13.89" length="40.00" shape="80.00,92.00 120.00,92.00"/>
        <lane id=":gneJ1_13_1" index="1" speed="13.89" length="40.00" shape="80.00,95.20 120.00,95.20"/>
        <lane id=":gneJ1_13_2" index="2" speed="13.89" length="40.00" shape="80.00,98.40 120.00,98.40"/>
    </edge>
    <edge id=":gneJ12_0" function="internal">
        <lane id=":gneJ12_0_0" index="0" speed="13.89" length="27.20" shape="-8.00,-86.40 -8.00,-113.60"/>
        <lane id=":gneJ12_0_1" index="1" speed="13.89" length="27.20" shape="-4.80,-86.40 -4.80,-113.60"/>
        <lane id=":gneJ12_0_2" index="2" speed="13.89" length="27.20" shape="-1.60,-86.40 -1.60,-113.60"/>
    </edge>
    <edge id=":gneJ12_3" function="internal">
        <lane id=":gneJ12_3_0" index="0" speed="10.88" length="9.57" shape="-1.60,-86.40 -0.65,-94.45 0.00,-95.76"/>
        <lane id=":gneJ12_3_1" index="1" speed="10.36" length="7.98" shape="-1.60,-86.40 -0.65,-93.05 -0.00,-94.13"/>
    </edge>
    <edge id=":gneJ12_12" function="internal">
        <lane id=":gneJ12_12_0" index="0" speed="10.88" length="17.57" shape="0.00,-95.76 2.20,-100.20 6.95,-103.65 13.60,-104.80"/>
    </edge>
    <edge id=":gneJ12_13" function="internal">
        <lane id=":gneJ12_13_0" index="0" speed="10.36" length="16.53" shape="-0.00,-94.13 2.20,-97.80 6.95,-100.65 13.60,-101.60"/>
    </edge>
    <edge id=":gneJ12_5" function="internal">
        <lane id=":gneJ12_5_0" index="0" speed="6.51" length="9.03" shape="13.60,-92.00 11.15,-91.65 9.40,-90.60 8.35,-88.85 8.00,-86.40"/>
    </edge>
    <edge id=":gneJ12_6" function="internal">
        <lane id=":gneJ12_6_0" index="0" speed="11.36" length="29.67" shape="13.60,-95.20 5.55,-96.35 -0.20,-99.80 -3.65,-105.55 -4.80,-113.60"/>
        <lane id=":gneJ12_6_1" index="1" speed="10.36" length="24.51" shape="13.60,-98.40 6.95,-99.35 2.20,-102.20 -0.65,-106.95 -1.60,-113.60"/>
    </edge>
    <edge id=":gneJ12_8" function="internal">
        <lane id=":gneJ12_8_0" index="0" speed="6.51" length="9.03" shape="8.00,-113.60 8.35,-111.15 9.40,-109.40 11.15,-108.35 13.60,-108.00"/>
    </edge>
    <edge id=":gneJ12_9" function="internal">
        <lane id=":gneJ12_9_0" index="0" speed="13.89" length="27.20" shape="8.00,-113.60 8.00,-86.40"/>
        <lane id=":gneJ12_9_1" index="1" speed="13.89" length="27.20" shape="4.80,-113.60 4.80,-86.40"/>
        <lane id=":gneJ12_9_2" index="2" speed="13.89" length="27.20" shape="1.60,-113.60 1.60,-86.40"/>
    </edge>
    <edge id=":gneJ13_0" function="internal">
        <lane id=":gneJ13_0_0" index="0" speed="6.51" length="9.03" shape="92.00,-86.40 91.65,-88.85 90.60,-90.60 88.85,-91.65 86.40,-92.00"/>
    </edge>
    <edge id=":gneJ13_1" function="internal">
        <lane id=":gneJ13_1_0" index="0" speed="13.89" length="27.20" shape="92.00,-86.40 92.00,-113.60"/>
        <lane id=":gneJ13_1_1" index="1" speed="13.89" length="27.20" shape="95.20,-86.40 95.20,-113.60"/>
        <lane id=":gneJ13_1_2" index="2" speed="13.89" length="27.20" shape="98.40,-86.40 98.40,-113.60"/>
    </edge>
    <edge id=":gneJ13_4" function="internal">
        <lane id=":gneJ13_4_0" index="0" speed="10.36" length="7.98" shape="98.40,-86.40 99.35,-93.05 100.00,-94.13"/>
    </edge>
    <edge id=":gneJ13_20" function="internal">
        <lane id=":gneJ13_20_0" index="0" speed="10.36" length="16.53" shape="100.00,-94.13 102.20,-97.80 106.95,-100.65 113.60,-101.60"/>
    </edge>
    <edge id=":gneJ13_5" function="internal">
        <lane id=":gneJ13_5_0" index="0" speed="6.51" length="9.03" shape="113.60,-92.00 111.15,-91.65 109.40,-90.60 108.35,-88.85 108.00,-86.40"/>
    </edge>
    <edge id=":gneJ13_6" function="internal">
        <lane id=":gneJ13_6_0" index="0" speed="13.89" length="27.20" shape="113.60,-92.00 86.40,-92.00"/>
        <lane id=":gneJ13_6_1" index="1" speed="13.89" length="27.20" shape="113.60,-95.20 86.40,-95.20"/>
        <lane id=":gneJ13_6_2" index="2" speed="13.89" length="27.20" shape="113.60,-98.40 86.40,-98.40"/>
    </edge>
    <edge id=":gneJ13_9" function="internal">
        <lane id=":gneJ13_9_0" index="0" speed="10.36" length="7.98" shape="113.60,-98.40 106.95,-99.35 105.87,-100.00"/>
    </edge>
    <edge id=":gneJ13_21" function="internal">
        <lane id=":gneJ13_21_0" index="0" speed="10.36" length="16.53" shape="105.87,-100.00 102.20,-102.20 99.35,-106.95 98.40,-113.60"/>
    </edge>
    <edge id=":gneJ13_10" function="internal">
        <lane id=":gneJ13_10_0" index="0" speed="6.51" length="9.03" shape="108.00,-113.60 108.35,-111.15 109.40,-109.40 111.15,-108.35 113.60,-108.00"/>
    </edge>
    <edge id=":gneJ13_11" function="internal">
        <lane id=":gneJ13_11_0" index="0" speed="13.89" length="27.20" shape="108.00,-113.60 108.00,-86.40"/>
        <lane id=":gneJ13_11_1" index="1" speed="13.89" length="27.20" shape="104.80,-113.60 104.80,-86.40"/>
        <lane id=":gneJ13_11_2" index="2" speed="13.89" length="27.20" shape="101.60,-113.60 101.60,-86.40"/>
    </edge>
    <edge id=":gneJ13_14" function="internal">
        <lane id=":gneJ13_14_0" index="0" speed="10.36" length="7.98" shape="101.60,-113.60 100.65,-106.95 100.00,-105.87"/>
    </edge>
    <edge id=":gneJ13_22" function="internal">
        <lane id=":gneJ13_22_0" index="0" speed="10.36" length="16.53" shape="100.00,-105.87 97.80,-102.20 93.05,-99.35 86.40,-98.40"/>
    </edge>
    <edge id=":gneJ13_15" function="internal">
        <lane id=":gneJ13_15_0" index="0" speed="6.51" length="9.03" shape="86.40,-108.00 88.85,-108.35 90.60,-109.40 91.65,-111.15 92.00,-113.60"/>
    </edge>
    <edge id=":gneJ13_16" function="internal">
        <lane id=":gneJ13_16_0" index="0" speed="13.89" length="27.20" shape="86.40,-108.00 113.60,-108.00"/>
        <lane id=":gneJ13_16_1" index="1" speed="13.89" length="27.20" shape="86.40,-104.80 113.60,-104.80"/>
        <lane id=":gneJ13_16_2" index="2" speed="13.89" length="27.20" shape="86.40,-101.60 113.60,-101.60"/>
    </edge>
    <edge id=":gneJ13_19" function="internal">
        <lane id=":gneJ13_19_0" index="0" speed="10.36" length="7.98" shape="86.40,-101.60 93.05,-100.65 94.13,-100.00"/>
    </edge>
    <edge id=":gneJ13_23" function="internal">
        <lane id=":gneJ13_23_0" index="0" speed="10.36" length="16.53" shape="94.13,-100.00 97.80,-97.80 100.65,-93.05 101.60,-86.40"/>
    </edge>
    <edge id=":gneJ14_0" function="internal">
        <lane id=":gneJ14_0_0" index="0" speed="6.51" length="9.03" shape="192.00,-86.40 191.65,-88.85 190.60,-90.60 188.85,-91.65 186.40,-92.00"/>
    </edge>
    <edge id=":gneJ14_1" function="internal">
        <lane id=":gneJ14_1_0" index="0" speed="13.89" length="27.20" shape="192.00,-86.40 192.00,-113.60"/>
        <lane id=":gneJ14_1_1" index="1" speed="13.89" length="27.20" shape="195.20,-86.40 195.20,-113.60"/>
        <lane id=":gneJ14_1_2" index="2" speed="13.89" length="27.20" shape="198.40,-86.40 198.40,-113.60"/>
    </edge>
    <edge id=":gneJ14_4" function="internal">
        <lane id=":gneJ14_4_0" index="0" speed="10.36" length="7.98" shape="198.40,-86.40 199.35,-93.05 200.00,-94.13"/>
    </edge>
    <edge id=":gneJ14_20" function="internal">
        <lane id=":gneJ14_20_0" index="0" speed="10.36" length="16.53" shape="200.00,-94.13 202.20,-97.80 206.95,-100.65 213.60,-101.60"/>
    </edge>
    <edge id=":gneJ14_5" function="internal">
        <lane id=":gneJ14_5_0" index="0" speed="6.51" length="9.03" shape="213.60,-92.00 211.15,-91.65 209.40,-90.60 208.35,-88.85 208.00,-86.40"/>
    </edge>
    <edge id=":gneJ14_6" function="internal">
        <lane id=":gneJ14_6_0" index="0" speed="13.89" length="27.20" shape="213.60,-92.00 186.40,-92.00"/>
        <lane id=":gneJ14_6_1" index="1" speed="13.89" length="27.20" shape="213.60,-95.20 186.40,-95.20"/>
        <lane id=":gneJ14_6_2" index="2" speed="13.89" length="27.20" shape="213.60,-98.40 186.40,-98.40"/>
    </edge>
    <edge id=":gneJ14_9" function="internal">
        <lane id=":gneJ14_9_0" index="0" speed="10.36" length="7.98" shape="213.60,-98.40 206.95,-99.35 205.87,-100.00"/>
    </edge>
    <edge id=":gneJ14_21" function="internal">
        <lane id=":gneJ14_21_0" index="0" speed="10.36" length="16.53" shape="205.87,-100.00 202.20,-102.20 199.35,-106.95 198.40,-113.60"/>
    </edge>
    <edge id=":gneJ14_10" function="internal">
        <lane id=":gneJ14_10_0" index="0" speed="6.51" length="9.03" shape="208.00,-113.60 208.35,-111.15 209.40,-109.40 211.15,-108.35 213.60,-108.00"/>
    </edge>
    <edge id=":gneJ14_11" function="internal">
        <lane id=":gneJ14_11_0" index="0" speed="13.89" length="27.20" shape="208.00,-113.60 208.00,-86.40"/>
        <lane id=":gneJ14_11_1" index="1" speed="13.89" length="27.20" shape="204.80,-113.60 204.80,-86.40"/>
        <lane id=":gneJ14_11_2" index="2" speed="13.89" length="27.20" shape="201.60,-113.60 201.60,-86.40"/>
    </edge>
    <edge id=":gneJ14_14" function="internal">
        <lane id=":gneJ14_14_0" index="0" speed="10.36" length="7.98" shape="201.60,-113.60 200.65,-106.95 200.00,-105.87"/>
    </edge>
    <edge id=":gneJ14_22" function="internal">
        <lane id=":gneJ14_22_0" index="0" speed="10.36" length="16.53" shape="200.00,-105.87 197.80,-102.20 193.05,-99.35 186.40,-98.40"/>
    </edge>
    <edge id=":gneJ14_15" function="internal">
        <lane id=":gneJ14_15_0" index="0" speed="6.51" length="9.03" shape="186.40,-108.00 188.85,-108.35 190.60,-109.40 191.65,-111.15 192.00,-113.60"/>
    </edge>
    <edge id=":gneJ14_16" function="internal">
        <lane id=":gneJ14_16_0" index="0" speed="13.89" length="27.20" shape="186.40,-108.00 213.60,-108.00"/>
        <lane id=":gneJ14_16_1" index="1" speed="13.89" length="27.20" shape="186.40,-104.80 213.60,-104.80"/>
        <lane id=":gneJ14_16_2" index="2" speed="13.89" length="27.20" shape="186.40,-101.60 213.60,-101.60"/>
    </edge>
    <edge id=":gneJ14_19" function="internal">
        <lane id=":gneJ14_19_0" index="0" speed="10.36" length="7.98" shape="186.40,-101.60 193.05,-100.65 194.13,-100.00"/>
    </edge>
    <edge id=":gneJ14_23" function="internal">
        <lane id=":gneJ14_23_0" index="0" speed="10.36" length="16.53" shape="194.13,-100.00 197.80,-97.80 200.65,-93.05 201.60,-86.40"/>
    </edge>
    <edge id=":gneJ15_0" function="internal">
        <lane id=":gneJ15_0_0" index="0" speed="6.51" length="9.03" shape="292.00,-86.40 291.65,-88.85 290.60,-90.60 288.85,-91.65 286.40,-92.00"/>
    </edge>
    <edge id=":gneJ15_1" function="internal">
        <lane id=":gneJ15_1_0" index="0" speed="13.89" length="27.20" shape="292.00,-86.40 292.00,-113.60"/>
        <lane id=":gneJ15_1_1" index="1" speed="13.89" length="27.20" shape="295.20,-86.40 295.20,-113.60"/>
        <lane id=":gneJ15_1_2" index="2" speed="13.89" length="27.20" shape="298.40,-86.40 298.40,-113.60"/>
    </edge>
    <edge id=":gneJ15_4" function="internal">
        <lane id=":gneJ15_4_0" index="0" speed="13.89" length="27.20" shape="308.00,-113.60 308.00,-86.40"/>
        <lane id=":gneJ15_4_1" index="1" speed="13.89" length="27.20" shape="304.80,-113.60 304.80,-86.40"/>
        <lane id=":gneJ15_4_2" index="2" speed="13.89" length="27.20" shape="301.60,-113.60 301.60,-86.40"/>
    </edge>
    <edge id=":gneJ15_7" function="internal">
        <lane id=":gneJ15_7_0" index="0" speed="10.88" length="9.57" shape="301.60,-113.60 300.65,-105.55 300.00,-104.24"/>
        <lane id=":gneJ15_7_1" index="1" speed="10.36" length="7.98" shape="301.60,-113.60 300.65,-106.95 300.00,-105.87"/>
    </edge>
    <edge id=":gneJ15_12" function="internal">
        <lane id=":gneJ15_12_0" index="0" speed="10.88" length="17.57" shape="300.00,-104.24 297.80,-99.80 293.05,-96.35 286.40,-95.20"/>
    </edge>
    <edge id=":gneJ15_13" function="internal">
        <lane id=":gneJ15_13_0" index="0" speed="10.36" length="16.53" shape="300.00,-105.87 297.80,-102.20 293.05,-99.35 286.40,-98.40"/>
    </edge>
    <edge id=":gneJ15_9" function="internal">
        <lane id=":gneJ15_9_0" index="0" speed="6.51" length="9.03" shape="286.40,-108.00 288.85,-108.35 290.60,-109.40 291.65,-111.15 292.00,-113.60"/>
    </edge>
    <edge id=":gneJ15_10" function="internal">
        <lane id=":gneJ15_10_0" index="0" speed="11.36" length="29.67" shape="286.40,-104.80 294.45,-103.65 300.20,-100.20 303.65,-94.45 304.80,-86.40"/>
        <lane id=":gneJ15_10_1" index="1" speed="10.36" length="24.51" shape="286.40,-101.60 293.05,-100.65 297.80,-97.80 300.65,-93.05 301.60,-86.40"/>
    </edge>
    <edge id=":gneJ16_0" function="internal">
        <lane id=":gneJ16_0_0" index="0" speed="11.12" length="28.38" shape="-8.00,-190.40 -6.90,-198.10 -3.60,-203.60 1.90,-206.90 9.60,-208.00"/>
        <lane id=":gneJ16_0_1" index="1" speed="10.10" length="23.22" shape="-4.80,-190.40 -3.90,-196.70 -1.20,-201.20 3.30,-203.90 9.60,-204.80"/>
        <lane id=":gneJ16_0_2" index="2" speed="8.96" length="18.06" shape="-1.60,-190.40 -0.90,-195.30 1.20,-198.80 4.70,-200.90 9.60,-201.60"/>
    </edge>
    <edge id=":gneJ16_3" function="internal">
        <lane id=":gneJ16_3_0" index="0" speed="3.90" length="2.58" shape="9.60,-192.00 8.90,-191.90 8.40,-191.60 8.10,-191.10 8.00,-190.40"/>
        <lane id=":gneJ16_3_1" index="1" speed="6.08" length="7.74" shape="9.60,-195.20 7.50,-194.90 6.00,-194.00 5.10,-192.50 4.80,-190.40"/>
        <lane id=":gneJ16_3_2" index="2" speed="7.66" length="12.90" shape="9.60,-198.40 6.10,-197.90 3.60,-196.40 2.10,-193.90 1.60,-190.40"/>
    </edge>
    <edge id=":gneJ17_0" function="internal">
        <lane id=":gneJ17_0_0" index="0" speed="6.51" length="9.03" shape="92.00,-186.40 91.65,-188.85 90.60,-190.60 88.85,-191.65 86.40,-192.00"/>
    </edge>
    <edge id=":gneJ17_1" function="internal">
        <lane id=":gneJ17_1_0" index="0" speed="11.36" length="29.67" shape="95.20,-186.40 96.35,-194.45 99.80,-200.20 105.55,-203.65 113.60,-204.80"/>
        <lane id=":gneJ17_1_1" index="1" speed="10.36" length="24.51" shape="98.40,-186.40 99.35,-193.05 102.20,-197.80 106.95,-200.65 113.60,-201.60"/>
    </edge>
    <edge id=":gneJ17_3" function="internal">
        <lane id=":gneJ17_3_0" index="0" speed="6.51" length="9.03" shape="113.60,-192.00 111.15,-191.65 109.40,-190.60 108.35,-188.85 108.00,-186.40"/>
    </edge>
    <edge id=":gneJ17_4" function="internal">
        <lane id=":gneJ17_4_0" index="0" speed="13.89" length="27.20" shape="113.60,-192.00 86.40,-192.00"/>
        <lane id=":gneJ17_4_1" index="1" speed="13.89" length="27.20" shape="113.60,-195.20 86.40,-195.20"/>
        <lane id=":gneJ17_4_2" index="2" speed="13.89" length="27.20" shape="113.60,-198.40 86.40,-198.40"/>
    </edge>
    <edge id=":gneJ17_7" function="internal">
        <lane id=":gneJ17_7_0" index="0" speed="13.89" length="27.20" shape="86.40,-208.00 113.60,-208.00"/>
        <lane id=":gneJ17_7_1" index="1" speed="13.89" length="27.20" shape="86.40,-204.80 113.60,-204.80"/>
        <lane id=":gneJ17_7_2" index="2" speed="13.89" length="27.20" shape="86.40,-201.60 113.60,-201.60"/>
    </edge>
    <edge id=":gneJ17_10" function="internal">
        <lane id=":gneJ17_10_0" index="0" speed="10.88" length="9.57" shape="86.40,-201.60 94.45,-200.65 95.76,-200.00"/>
        <lane id=":gneJ17_10_1" index="1" speed="10.36" length="7.98" shape="86.40,-201.60 93.05,-200.65 94.13,-200.00"/>
    </edge>
    <edge id=":gneJ17_12" function="internal">
        <lane id=":gneJ17_12_0" index="0" speed="10.88" length="17.57" shape="95.76,-200.00 100.20,-197.80 103.65,-193.05 104.80,-186.40"/>
    </edge>
    <edge id=":gneJ17_13" function="internal">
        <lane id=":gneJ17_13_0" index="0" speed="10.36" length="16.53" shape="94.13,-200.00 97.80,-197.80 100.65,-193.05 101.60,-186.40"/>
    </edge>
    <edge id=":gneJ18_0" function="internal">
        <lane id=":gneJ18_0_0" index="0" speed="6.51" length="9.03" shape="192.00,-186.40 191.65,-188.85 190.60,-190.60 188.85,-191.65 186.40,-192.00"/>
    </edge>
    <edge id=":gneJ18_1" function="internal">
        <lane id=":gneJ18_1_0" index="0" speed="11.36" length="29.67" shape="195.20,-186.40 196.35,-194.45 199.80,-200.20 205.55,-203.65 213.60,-204.80"/>
        <lane id=":gneJ18_1_1" index="1" speed="10.36" length="24.51" shape="198.40,-186.40 199.35,-193.05 202.20,-197.80 206.95,-200.65 213.60,-201.60"/>
    </edge>
    <edge id=":gneJ18_3" function="internal">
        <lane id=":gneJ18_3_0" index="0" speed="6.51" length="9.03" shape="213.60,-192.00 211.15,-191.65 209.40,-190.60 208.35,-188.85 208.00,-186.40"/>
    </edge>
    <edge id=":gneJ18_4" function="internal">
        <lane id=":gneJ18_4_0" index="0" speed="13.89" length="27.20" shape="213.60,-192.00 186.40,-192.00"/>
        <lane id=":gneJ18_4_1" index="1" speed="13.89" length="27.20" shape="213.60,-195.20 186.40,-195.20"/>
        <lane id=":gneJ18_4_2" index="2" speed="13.89" length="27.20" shape="213.60,-198.40 186.40,-198.40"/>
    </edge>
    <edge id=":gneJ18_7" function="internal">
        <lane id=":gneJ18_7_0" index="0" speed="13.89" length="27.20" shape="186.40,-208.00 213.60,-208.00"/>
        <lane id=":gneJ18_7_1" index="1" speed="13.89" length="27.20" shape="186.40,-204.80 213.60,-204.80"/>
        <lane id=":gneJ18_7_2" index="2" speed="13.89" length="27.20" shape="186.40,-201.60 213.60,-201.60"/>
    </edge>
    <edge id=":gneJ18_10" function="internal">
        <lane id=":gneJ18_10_0" index="0" speed="10.88" length="9.57" shape="186.40,-201.60 194.45,-200.65 195.76,-200.00"/>
        <lane id=":gneJ18_10_1" index="1" speed="10.36" length="7.98" shape="186.40,-201.60 193.05,-200.65 194.13,-200.00"/>
    </edge>
    <edge id=":gneJ18_12" function="internal">
        <lane id=":gneJ18_12_0" index="0" speed="10.88" length="17.57" shape="195.76,-200.00 200.20,-197.80 203.65,-193.05 204.80,-186.40"/>
    </edge>
    <edge id=":gneJ18_13" function="internal">
        <lane id=":gneJ18_13_0" index="0" speed="10.36" length="16.53" shape="194.13,-200.00 197.80,-197.80 200.65,-193.05 201.60,-186.40"/>
    </edge>
    <edge id=":gneJ19_0" function="internal">
        <lane id=":gneJ19_0_0" index="0" speed="3.90" length="2.58" shape="292.00,-190.40 291.90,-191.10 291.60,-191.60 291.10,-191.90 290.40,-192.00"/>
        <lane id=":gneJ19_0_1" index="1" speed="6.08" length="7.74" shape="295.20,-190.40 294.90,-192.50 294.00,-194.00 292.50,-194.90 290.40,-195.20"/>
        <lane id=":gneJ19_0_2" index="2" speed="7.66" length="12.90" shape="298.40,-190.40 297.90,-193.90 296.40,-196.40 293.90,-197.90 290.40,-198.40"/>
    </edge>
    <edge id=":gneJ19_3" function="internal">
        <lane id=":gneJ19_3_0" index="0" speed="11.12" length="28.38" shape="290.40,-208.00 298.10,-206.90 303.60,-203.60 306.90,-198.10 308.00,-190.40"/>
        <lane id=":gneJ19_3_1" index="1" speed="10.10" length="23.22" shape="290.40,-204.80 296.70,-203.90 301.20,-201.20 303.90,-196.70 304.80,-190.40"/>
        <lane id=":gneJ19_3_2" index="2" speed="8.96" length="18.06" shape="290.40,-201.60 295.30,-200.90 298.80,-198.80 300.90,-195.30 301.60,-190.40"/>
    </edge>
    <edge id=":gneJ2_0" function="internal">
        <lane id=":gneJ2_0_0" index="0" speed="13.89" length="27.20" shape="213.60,108.00 186.40,108.00"/>
        <lane id=":gneJ2_0_1" index="1" speed="13.89" length="27.20" shape="213.60,104.80 186.40,104.80"/>
        <lane id=":gneJ2_0_2" index="2" speed="13.89" length="27.20" shape="213.60,101.60 186.40,101.60"/>
    </edge>
    <edge id=":gneJ2_3" function="internal">
        <lane id=":gneJ2_3_0" index="0" speed="10.88" length="9.57" shape="213.60,101.60 205.55,100.65 204.24,100.00"/>
        <lane id=":gneJ2_3_1" index="1" speed="10.36" length="7.98" shape="213.60,101.60 206.95,100.65 205.87,100.00"/>
    </edge>
    <edge id=":gneJ2_12" function="internal">
        <lane id=":gneJ2_12_0" index="0" speed="10.88" length="17.57" shape="204.24,100.00 199.80,97.80 196.35,93.05 195.20,86.40"/>
    </edge>
    <edge id=":gneJ2_13" function="internal">
        <lane id=":gneJ2_13_0" index="0" speed="10.36" length="16.53" shape="205.87,100.00 202.20,97.80 199.35,93.05 198.40,86.40"/>
    </edge>
    <edge id=":gneJ2_5" function="internal">
        <lane id=":gneJ2_5_0" index="0" speed="6.51" length="9.03" shape="208.00,86.40 208.35,88.85 209.40,90.60 211.15,91.65 213.60,92.00"/>
    </edge>
    <edge id=":gneJ2_6" function="internal">
        <lane id=":gneJ2_6_0" index="0" speed="11.36" length="29.67" shape="204.80,86.40 203.65,94.45 200.20,100.20 194.45,103.65 186.40,104.80"/>
        <lane id=":gneJ2_6_1" index="1" speed="10.36" length="24.51" shape="201.60,86.40 200.65,93.05 197.80,97.80 193.05,100.65 186.40,101.60"/>
    </edge>
    <edge id=":gneJ2_8" function="internal">
        <lane id=":gneJ2_8_0" index="0" speed="6.51" length="9.03" shape="186.40,92.00 188.85,91.65 190.60,90.60 191.65,88.85 192.00,86.40"/>
    </edge>
    <edge id=":gneJ2_9" function="internal">
        <lane id=":gneJ2_9_0" index="0" speed="13.89" length="27.20" shape="186.40,92.00 213.60,92.00"/>
        <lane id=":gneJ2_9_1" index="1" speed="13.89" length="27.20" shape="186.40,95.20 213.60,95.20"/>
        <lane id=":gneJ2_9_2" index="2" speed="13.89" length="27.20" shape="186.40,98.40 213.60,98.40"/>
    </edge>
    <edge id=":gneJ3_0" function="internal">
        <lane id=":gneJ3_0_0" index="0" speed="11.12" length="28.38" shape="308.00,90.40 306.90,98.10 303.60,103.60 298.10,106.90 290.40,108.00"/>
        <lane id=":gneJ3_0_1" index="1" speed="10.10" length="23.22" shape="304.80,90.40 303.90,96.70 301.20,101.20 296.70,103.90 290.40,104.80"/>
        <lane id=":gneJ3_0_2" index="2" speed="8.96" length="18.06" shape="301.60,90.40 300.90,95.30 298.80,98.80 295.30,100.90 290.40,101.60"/>
    </edge>
    <edge id=":gneJ3_3" function="internal">
        <lane id=":gneJ3_3_0" index="0" speed="3.90" length="2.58" shape="290.40,92.00 291.10,91.90 291.60,91.60 291.90,91.10 292.00,90.40"/>
        <lane id=":gneJ3_3_1" index="1" speed="6.08" length="7.74" shape="290.40,95.20 292.50,94.90 294.00,94.00 294.90,92.50 295.20,90.40"/>
        <lane id=":gneJ3_3_2" index="2" speed="7.66" length="12.90" shape="290.40,98.40 293.90,97.90 296.40,96.40 297.90,93.90 298.40,90.40"/>
    </edge>
    <edge id=":gneJ4_0" function="internal">
        <lane id=":gneJ4_0_0" index="0" speed="13.89" length="27.20" shape="-8.00,13.60 -8.00,-13.60"/>
        <lane id=":gneJ4_0_1" index="1" speed="13.89" length="27.20" shape="-4.80,13.60 -4.80,-13.60"/>
        <lane id=":gneJ4_0_2" index="2" speed="13.89" length="27.20" shape="-1.60,13.60 -1.60,-13.60"/>
    </edge>
    <edge id=":gneJ4_3" function="internal">
        <lane id=":gneJ4_3_0" index="0" speed="10.88" length="9.57" shape="-1.60,13.60 -0.65,5.55 -0.00,4.24"/>
        <lane id=":gneJ4_3_1" index="1" speed="10.36" length="7.98" shape="-1.60,13.60 -0.65,6.95 -0.00,5.87"/>
    </edge>
    <edge id=":gneJ4_12" function="internal">
        <lane id=":gneJ4_12_0" index="0" speed="10.88" length="17.57" shape="-0.00,4.24 2.20,-0.20 6.95,-3.65 13.60,-4.80"/>
    </edge>
    <edge id=":gneJ4_13" function="internal">
        <lane id=":gneJ4_13_0" index="0" speed="10.36" length="16.53" shape="-0.00,5.87 2.20,2.20 6.95,-0.65 13.60,-1.60"/>
    </edge>
    <edge id=":gneJ4_5" function="internal">
        <lane id=":gneJ4_5_0" index="0" speed="6.51" length="9.03" shape="13.60,8.00 11.15,8.35 9.40,9.40 8.35,11.15 8.00,13.60"/>
    </edge>
    <edge id=":gneJ4_6" function="internal">
        <lane id=":gneJ4_6_0" index="0" speed="11.36" length="29.67" shape="13.60,4.80 5.55,3.65 -0.20,0.20 -3.65,-5.55 -4.80,-13.60"/>
        <lane id=":gneJ4_6_1" index="1" speed="10.36" length="24.51" shape="13.60,1.60 6.95,0.65 2.20,-2.20 -0.65,-6.95 -1.60,-13.60"/>
    </edge>
    <edge id=":gneJ4_8" function="internal">
        <lane id=":gneJ4_8_0" index="0" speed="6.51" length="9.03" shape="8.00,-13.60 8.35,-11.15 9.40,-9.40 11.15,-8.35 13.60,-8.00"/>
    </edge>
    <edge id=":gneJ4_9" function="internal">
        <lane id=":gneJ4_9_0" index="0" speed="13.89" length="27.20" shape="8.00,-13.60 8.00,13.60"/>
        <lane id=":gneJ4_9_1" index="1" speed="13.89" length="27.20" shape="4.80,-13.60 4.80,13.60"/>
        <lane id=":gneJ4_9_2" index="2" speed="13.89" length="27.20" shape="1.60,-13.60 1.60,13.60"/>
    </edge>
    <edge id=":gneJ5_0" function="internal">
        <lane id=":gneJ5_0_0" index="0" speed="8.10" length="14.57" shape="85.60,20.00 85.25,14.75 84.20,11.00 82.45,8.75 80.00,8.00"/>
    </edge>
    <edge id=":gneJ5_1" function="internal">
        <lane id=":gneJ5_1_0" index="0" speed="13.89" length="40.13" shape="88.80,20.00 92.00,-20.00"/>
        <lane id=":gneJ5_1_1" index="1" speed="13.89" length="40.13" shape="92.00,20.00 95.20,-20.00"/>
        <lane id=":gneJ5_1_2" index="2" speed="13.89" length="40.13" shape="95.20,20.00 98.40,-20.00"/>
    </edge>
    <edge id=":gneJ5_4" function="internal">
        <lane id=":gneJ5_4_0" index="0" speed="12.72" length="15.76" shape="98.40,20.00 99.75,9.15 101.98,4.87"/>
        <lane id=":gneJ5_4_1" index="1" speed="12.28" length="14.16" shape="98.40,20.00 99.75,10.55 102.12,6.60"/>
    </edge>
    <edge id=":gneJ5_24" function="internal">
        <lane id=":gneJ5_24_0" index="0" speed="12.72" length="21.69" shape="101.98,4.87 103.80,1.40 110.55,-3.25 120.00,-4.80"/>
    </edge>
    <edge id=":gneJ5_25" function="internal">